Version 4.1
SHEET 1 1908 692
WIRE 144 -96 144 -144
WIRE -448 -80 -448 -96
WIRE -336 -80 -336 -96
WIRE 848 -80 848 -112
WIRE 1664 -48 1664 -80
WIRE 992 -16 992 -112
WIRE 544 16 512 16
WIRE 1792 16 1792 -80
WIRE 704 32 608 32
WIRE 848 32 848 0
WIRE 848 32 768 32
WIRE 928 32 848 32
WIRE 144 48 144 -16
WIRE 240 48 144 48
WIRE 352 48 240 48
WIRE 448 48 352 48
WIRE 544 48 448 48
WIRE 1360 48 1296 48
WIRE 1536 64 1424 64
WIRE 1664 64 1664 32
WIRE 1664 64 1600 64
WIRE 1728 64 1664 64
WIRE 64 80 64 64
WIRE 144 80 144 48
WIRE 240 80 240 48
WIRE 352 80 352 48
WIRE 1360 80 1328 80
WIRE 1328 96 1328 80
WIRE 352 176 352 144
WIRE 448 224 448 48
WIRE 720 224 448 224
WIRE 992 224 992 80
WIRE 992 224 800 224
WIRE 1616 224 992 224
WIRE 64 272 64 256
WIRE 144 272 144 256
WIRE 240 272 240 256
WIRE 240 272 144 272
WIRE 352 288 352 256
WIRE 144 304 144 272
WIRE 1296 384 1296 48
WIRE 1312 384 1296 384
WIRE 1616 384 1616 224
WIRE 1616 384 1504 384
WIRE 1296 448 1296 384
WIRE 1312 448 1296 448
WIRE 1792 448 1792 112
WIRE 1792 448 1504 448
WIRE 1792 496 1792 448
WIRE 512 512 512 16
WIRE 1296 512 512 512
WIRE 1312 512 1296 512
WIRE 1616 512 1616 384
WIRE 1616 512 1504 512
WIRE 1296 576 1296 512
WIRE 1312 576 1296 576
WIRE 1616 576 1504 576
WIRE 1408 672 1408 624
WIRE 1616 672 1616 576
WIRE 1792 672 1792 576
FLAG -448 -80 0
FLAG -336 -80 0
FLAG -448 -176 VCC
FLAG 576 0 VCC
FLAG -336 -176 VEE
FLAG 576 64 VEE
FLAG 144 304 0
FLAG 352 288 0
FLAG 848 -112 VCC
FLAG 992 -112 VCC
FLAG 64 64 VCC
FLAG 64 272 VEE
FLAG 1408 672 0
FLAG 1616 672 0
FLAG 1392 32 VCC
FLAG 1392 96 VEE
FLAG 1328 96 0
FLAG 1664 -80 VEE
FLAG 1792 -80 VEE
FLAG 1792 672 0
FLAG 144 -144 VCC
SYMBOL References\\ADR1399E 128 160 R0
SYMATTR InstName U1
SYMBOL voltage -448 -192 R0
WINDOW 123 0 0 Left 0
WINDOW 39 0 0 Left 0
SYMATTR InstName V1
SYMATTR Value 15
SYMBOL voltage -336 -192 R0
WINDOW 123 0 0 Left 0
WINDOW 39 0 0 Left 0
SYMATTR InstName V2
SYMATTR Value -15
SYMBOL cap 336 80 R0
SYMATTR InstName C1
SYMATTR Value 1µ
SYMATTR SpiceLine V=50 Irms=0 Rser=0.008 Lser=0 mfg="TDK" pn="C3225X7RlHlO5M" type="X7R"
SYMBOL res 336 160 R0
SYMATTR InstName R1
SYMATTR Value 12
SYMBOL diode 704 48 R270
WINDOW 0 32 32 VTop 2
WINDOW 3 0 32 VBottom 2
SYMATTR InstName D1
SYMATTR Value STZ5_6N
SYMATTR Description Diode
SYMATTR Type diode
SYMBOL res 832 -96 R0
SYMATTR InstName R2
SYMATTR Value 12k
SYMBOL npn 928 -16 R0
SYMATTR InstName Q1
SYMATTR Value BC847C
SYMBOL res 816 208 R90
WINDOW 0 0 56 VBottom 2
WINDOW 3 32 56 VTop 2
SYMATTR InstName R3
SYMATTR Value 2.49k
SYMBOL Misc\\LT5400-1 1408 480 R0
SYMATTR InstName U3
SYMBOL diode 1600 48 R90
WINDOW 0 -4 32 VBottom 2
WINDOW 3 36 32 VTop 2
SYMATTR InstName D2
SYMATTR Value STZ5_6N
SYMATTR Description Diode
SYMATTR Type diode
SYMBOL res 1648 -64 R0
SYMATTR InstName R4
SYMATTR Value 12k
SYMBOL pnp 1728 16 R0
SYMATTR InstName Q2
SYMATTR Value BC857C
SYMBOL res 1776 480 R0
SYMATTR InstName R5
SYMATTR Value 8.2k
SYMBOL OpAmps\\AD706 576 -32 R0
SYMATTR InstName U5
SYMBOL OpAmps\\AD706 1392 0 R0
SYMATTR InstName U2
SYMBOL res 128 -112 R0
SYMATTR InstName R6
SYMATTR Value 100k
TEXT -336 -8 Left 2 !.tran 0.5 startup
